384
Atoms. Timestep: 0
Li -5.887 10.24 3.368
Li 4.559 10.749 3.192
Li 6.689 11.267 4.595
Li 12.203 2.27 4.561
Li 10.185 1.208 3.328
Li 8.543 4.23 3.401
Li 4.882 4.137 3.322
Li 4.902 2.243 4.919
Li 6.459 5.074 4.674
Li 6.747 7.321 3.283
Li 8.398 2.168 4.775
Li 8.546 8.328 4.842
Li 0.965 4.554 3.184
Li 10.265 5.789 4.881
Li 3.17 5.199 4.832
Li 3.631 1.36 3
N 10.276 3.074 4.086
N 8.504 0.146 4.128
N 12.011 0.101 4.451
N 6.707 3.241 4.115
N 5.005 6.333 4.203
N 3.255 3.15 4.132
N 8.289 6.178 4.411
N 4.716 0.011 4.352
N -5.9224 12.3452 4.301
N 6.761 9.277 4.172
H 5.263 0.195 3.488
H 1.366 0.907 3.938
H 2.263 2.873 3.999
H 12.405 0.387 3.533
H 7.752 0.664 3.633
H 10.214 3.642 4.954
H 8.726 6.435 3.504
H 4.082 6.776 4.016
H 5.907 9.134 3.601
H 6.591 2.218 3.968
Li -2.423 4.292 3.395
Li 1.257 10.514 3.378
Li 2.883 11.607 4.757
Li -2.163 10.336 3.31
Li -4.15 11.275 4.404
Li -0.473 11.904 4.841
Li 1.671 8.282 4.736
Li -0.719 5.334 4.725
Li -2.379 8.357 4.848
Li 4.806 8.329 4.992
Li -0.545 7.378 3.384
N 3.209 9.607 4.278
N -0.383 9.329 4.089
N 1.142 6.229 4.391
N -2.243 6.358 4.125
N -0.521 3.418 4.13
N -4.058 9.42 4.104
H 1.698 6.509 3.558
H -3.008 6.882 3.656
H -0.703 9.529 5.056
H -0.053 2.496 4.019
H -4.069 8.424 3.816
H 3.383 8.778 3.671
Li 6.69422 4.94622 19.119
N -0.567215 6.8956 19.4578
H 0.229705 7.11538 20.1578
Li -3.80401 9.90431 6.25681
Li 3.12522 6.70346 12.4417
Li 4.1455 7.75903 14.2808
Li -4.53828 11.7019 9.40008
Li 3.14782 7.14158 17.4128
Li 1.19126 12.3221 10.7254
Li 5.03754 12.0858 19.9468
Li 1.23081 0.442579 11.2253
Li 5.51009 9.7143 14.7191
Li -0.26404 8.39557 18.0757
Li 1.34591 1.89012 18.7485
Li 10.3836 1.37572 8.29298
Li 0.441073 10.7937 12.5404
Li 8.47343 1.91788 14.8502
N 3.21381 1.12648 10.3213
N -0.412381 1.2535 10.3526
N 1.28406 0.0309603 13.3724
N -2.32839 12.1522 13.5348
N 2.95498 2.90336 13.6198
N -0.385313 0.925521 19.3991
N 1.47827 1.71134 16.7334
N -0.388661 3.24138 13.2482
N -0.519873 4.6826 16.4329
H -0.625519 1.78452 9.52805
H 3.03381 1.92526 9.82453
H 4.33563 0.524627 14.0929
H 2.00953 0.446786 13.9588
H 3.8239 2.40913 13.4233
H -1.30866 3.06563 13.5377
H 1.81305 1.89286 15.7293
H -1.13364 4.35278 17.0748
H 0.305693 0.481799 20.1385
Li -5.67914 12.1358 18.9243
Li 2.9692 1.15436 7.59958
Li -0.33113 2.88493 20.4187
Li 1.74947 8.02391 19.2231
Li 2.93397 3.08658 11.0528
Li -0.542362 1.19685 13.0113
Li -3.85146 11.0308 19.6284
Li 4.72606 6.49054 6.28117
Li -0.730742 11.3847 9.42483
Li 8.92775 0.410027 6.24165
Li -4.14649 8.87894 20.0273
Li 10.195 5.03847 14.3916
Li 5.13296 9.58846 17.4842
Li -0.10367 3.19412 11.064
Li -0.688807 8.24066 8.26196
Li 2.96567 7.38332 7.00074
Li -0.399646 5.03878 14.3829
Li 6.54202 11.2463 18.3725
Li -0.320801 8.38044 15.7372
Li -0.236341 1.16668 17.2163
Li 0.862841 10.3803 15.2813
Li -0.459182 6.5039 17.4911
Li 4.82431 10.558 8.28634
Li 10.2816 0.928412 17.2512
Li 8.55586 1.13689 19.0557
Li 3.03581 4.44943 14.6455
Li -5.63695 12.1871 16.2178
Li -5.01625 8.98998 10.6217
N 6.41805 11.1641 7.21223
N 6.8275 9.68036 13.2242
N 4.71414 10.3403 10.6838
N 6.48313 7.16417 10.7123
N 8.37934 6.23374 13.7613
N 8.38094 8.08164 16.9267
N 4.58451 6.0988 13.4284
N 6.80113 11.0538 16.438
N 2.68969 11.1134 16.45
N 3.32536 9.23341 13.8309
N 4.70704 8.09413 16.3195
N 4.95449 10.169 19.3383
N 1.27976 7.81331 16.823
H 5.96745 12.0332 7.27387
H 5.54214 10.4913 9.93626
H 7.33461 7.72821 10.5507
H 7.58519 5.77106 13.2506
H 5.51955 6.0905 13.1535
H 7.50046 8.87852 13.1599
H 2.93435 9.79443 12.9133
H 5.01444 7.12555 16.2693
H 1.60031 7.71495 15.8204
H 3.58508 11.5933 16.0914
H 7.34138 8.02393 16.507
H 6.86397 9.98273 16.4018
H 5.16793 10.1473 20.3924
Li 7.33076 4.68643 14.5497
Li 1.25268 12.2834 16.6976
Li 6.79959 6.547 17.4084
Li 8.58902 5.78424 15.9687
Li 7.86343 0.450608 8.87447
Li 4.85497 5.47274 15.3095
Li 1.14581 2.28146 13.9268
Li 11.5959 1.76414 14.6284
Li -0.457061 7.32155 13.2689
Li 5.03038 0.663733 20.3684
N 12.0294 0.0515961 13.5938
N 11.922 1.71298 16.5604
N 8.15192 0.140461 13.2327
N 9.9723 2.82755 13.7173
N 10.2014 1.08797 10.2815
H 9.77856 1.77399 10.9282
H 4.44097 11.554 13.8656
H 0.212108 12.2908 13.831
H 10.501 3.06083 12.7925
H 12.3777 2.59374 16.9728
Li 10.2182 3.14213 16.1206
Li 1.54427 9.90704 17.5524
Li -2.07901 5.89573 20.3474
Li -5.93643 11.7651 6.3321
Li 6.27012 0.591239 18.0236
Li 7.83596 9.97369 8.09284
Li 6.68755 1.21335 6.87562
Li 0.83476 6.67234 8.66071
Li 2.76228 5.05013 18.6396
N -5.87547 10.5316 10.4868
N -4.13229 9.09994 14.1069
N -4.07956 11.0008 16.9373
N -2.19797 7.87743 16.8896
N 8.43938 10.0315 19.4566
H 7.74601 11.2535 10.2161
H -4.79836 8.95126 13.3578
H -2.2625 7.21129 17.7772
H -3.12653 11.4457 16.8333
H 8.14328 10.1979 20.4254
Li 5.01491 4.57038 7.6192
Li 6.61754 2.77184 16.014
Li 6.76136 9.64431 11.3218
Li -3.92469 11.0403 14.655
Li 1.15957 3.69527 17.371
Li 8.23488 10.0976 14.8647
Li -2.35506 8.14731 10.4397
Li -2.45116 6.342 6.2217
Li 4.69326 10.4589 5.94368
Li -2.47314 8.05584 19.334
Li 3.69174 11.1872 18.3442
Li 11.2939 0.59242 6.35982
Li 5.09168 9.93541 12.5709
Li 6.47691 7.15136 8.06411
Li -5.86682 10.6428 12.3846
Li 3.38383 11.6332 10.1644
Li -2.61517 10.2667 12.9843
Li 3.23695 3.68663 6.22719
N 6.79865 5.44415 7.26111
N 4.87775 2.46781 7.20092
N 8.50732 2.28203 7.20308
H 8.91484 2.98889 7.81889
H 4.80953 2.67521 8.27976
H 7.09382 4.54705 7.59178
Li 4.53794 4.21095 12.7043
Li -2.80488 5.99143 11.6797
Li 3.13627 5.16441 9.8988
Li 11.2772 4.52881 18.3926
Li 1.23543 5.85464 16.3069
Li 6.74332 5.42662 9.61835
N -0.584767 11.0226 16.9472
N 1.14177 9.58989 19.8429
N -2.2914 9.80344 19.8065
H -1.05948 10.3105 16.4665
H 1.01484 9.41103 20.8394
H -2.28362 10.4067 20.7811
Li -2.76637 10.1786 8.51028
Li 8.92222 7.66128 15.0344
N -2.1751 3.80544 19.8821
H -1.98964 3.62607 20.8251
Li 1.08185 3.90985 5.40076
Li 6.94056 11.6673 14.171
Li 10.0436 5.1699 10.1513
Li 2.50363 11.6218 14.1686
Li -0.581371 9.04398 11.1595
Li -2.27126 12.2465 10.9777
Li -0.599493 3.08992 15.4
Li 2.94894 9.38747 6.61449
Li -4.11694 9.10992 16.0201
Li 8.80134 3.72389 17.9279
Li 13.5613 0.461797 5.46283
Li 6.44871 3.82695 11.9243
Li -2.70495 6.52801 8.62871
Li -2.36803 6.1489 16.0327
Li 5.70913 1.13932 8.52365
Li 3.2449 2.75841 20.676
Li 6.87453 3.38578 6.27805
Li 3.13298 0.900586 12.5516
Li 0.911649 4.35006 7.9347
N 6.79352 3.06991 13.7017
N 10.0948 4.98869 16.4964
N 6.62971 4.82797 16.4777
N 8.77568 2.00252 16.8414
N 10.3378 0.481748 19.7164
N 8.3931 4.11565 19.9262
N 6.79728 0.436045 19.8249
N 5.06748 1.97104 17.205
N 10.2412 6.89368 19.8922
N 4.90299 3.63905 19.9058
N 1.40904 3.70019 19.306
N 3.08501 0.707533 19.7232
N 6.58795 6.81076 19.4436
N 3.34348 6.89971 19.4686
N 3.24128 4.95004 16.4157
H 5.78469 2.97262 14.0873
H 7.70627 1.93844 17.1689
H 4.92234 1.20766 16.4301
H 6.91525 4.2485 17.2924
H 7.0268 0.377165 20.8584
H 3.06222 5.76859 15.8512
H 5.42801 4.08841 20.6401
H 1.83913 4.34591 20.0005
H 2.70443 6.74698 20.2189
H 2.5385 0.43218 20.587
H 11.023 4.60375 16.2554
H 8.00084 3.64545 20.8307
H -3.98501 6.95228 20.9449
H 10.1357 0.291885 20.735
H 6.78615 7.02853 20.4362
Li -0.499225 4.86019 19.0129
Li 12.0177 1.79547 10.5077
Li 4.00529 2.46832 18.6939
Li 10.0129 4.83934 20.7713
Li 4.83724 8.32241 10.0381
Li 3.70627 8.97961 20.2021
Li 12.2972 1.86668 18.6853
Li 6.21616 7.63933 12.5688
Li -2.08284 3.75305 12.3887
Li 1.62948 8.78806 9.36637
Li 5.56596 12.3258 11.1785
Li -4.30275 7.60022 7.35151
Li 5.04782 4.06576 17.2073
Li 2.99123 9.27811 10.7982
Li 10.0603 6.89369 17.3164
Li 5.08119 5.98961 11.2608
Li 10.1174 2.52741 6.17965
Li -2.6214 8.08105 14.6572
Li 10.0147 7.00127 12.9709
Li 8.67257 5.25859 6.41432
Li 8.38581 6.27823 19.8793
Li 1.5201 8.47671 13.6423
Li 8.50419 6.41175 11.1156
Li 6.2866 1.03042 13.3717
Li 1.07988 6.85055 11.1757
Li 8.78706 8.06665 18.9003
Li -1.59714 11.9221 15.4304
Li 7.67391 2.72118 9.67026
Li 8.00298 2.27691 12.6591
Li 2.56195 1.27321 5.18217
Li -0.832416 3.22618 6.41038
Li -0.777874 5.27123 9.46659
Li -0.512634 10.8022 19.2868
Li 3.178 9.08628 15.7485
Li 3.58528 2.8315 16.0336
Li 7.1108 6.92043 5.93979
Li 9.94446 1.02082 12.8547
Li 11.5784 4.08918 7.63261
Li 0.056765 0.510373 8.35574
Li 10.3586 2.48178 19.9667
Li 5.20144 12.2011 15.5683
Li 3.37868 0.553079 17.7346
Li 1.48447 4.14154 12.4688
Li 1.5969 2.553 9.14602
Li 6.72786 9.59365 6.40103
Li 1.15854 10.6379 7.52553
Li 5.01765 2.13416 10.6503
N 2.83659 5.4416 6.93903
N 3.00134 7.16147 10.4096
N 1.27937 8.51261 7.59777
N -0.618728 5.32616 7.30919
N 4.64029 8.56157 6.98344
N 1.22044 2.4505 7.16762
N 1.39452 4.15839 10.052
N 4.73739 4.15431 10.7866
N 3.26709 11.4612 6.94322
N -0.64766 7.36658 9.96825
N -2.63324 8.46459 7.17683
N -0.40395 9.23284 13.6412
N -2.19163 10.2789 10.2978
N 1.32301 10.277 10.7245
N -0.495197 11.8316 7.55605
N -4.10373 11.6217 7.01854
N -2.4698 4.4541 10.7218
N -2.56087 6.33162 13.4919
N 1.0246 6.05934 13.0048
H 0.639575 1.93088 6.49619
H -0.861271 6.12721 6.77724
H -1.77273 8.76729 6.74752
H -4.62947 10.9858 7.58052
H 11.6755 3.59486 10.065
H 4.22139 8.53063 7.94214
H 0.628715 8.60177 6.81811
H 2.93655 11.0313 7.9358
H 3.18679 5.11976 7.87697
H 4.58596 3.69335 9.85656
H 1.18235 4.89471 10.7345
H 3.24998 7.02305 9.48192
H -0.726392 10.787 7.32197
H 1.02148 10.5859 9.62446
H -3.0258 10.0957 10.946
H -0.843905 6.77564 10.8252
H 1.27189 5.85565 14.0173
H -1.78081 5.77739 13.2034
H -0.80475 10.2867 13.563
Li -0.730142 8.86309 20.4855
Li 8.50367 9.66256 17.5892
Li 1.27184 6.53975 6.34003
Li 1.62983 11.3927 20.0401
Li 4.89529 7.53727 18.5888
Li -2.56861 9.81388 17.5778
Li -2.48966 11.9829 6.24106
Li 6.74985 2.32249 19.9444
Li 4.78822 5.6712 20.194
Li 8.93193 4.43425 12.9092
N 11.8083 2.28535 6.92775
N -3.98811 7.16397 10.5745
N 8.18042 8.39094 7.39341
N 10.4683 5.78544 7.54382
N 8.11507 4.16179 11.0631
H 12.1718 2.02405 7.819
H 8.38594 7.62609 8.11197
H 9.62675 5.45828 8.0527
H 8.89444 3.53258 11.2933
H -3.89329 7.42166 9.55411
Li 6.75373 8.91997 19.353
N 6.55997 0.9879 10.1105
H 6.4916 1.08519 11.1012
